####################################################################### 
# 
# This file contains crystal structure data downloaded from the 
# Cambridge Structural Database (CSD) hosted by the Cambridge 
# Crystallographic Data Centre (CCDC).
# 
# Full information about CCDC data access policies and citation 
# guidelines are available at http://www.ccdc.cam.ac.uk/access/V1 
# 
# Audit and citation data items may have been added by the CCDC. 
# Please retain this information to preserve the provenance of 
# this file and to allow appropriate attribution of the data. 
# 
#######################################################################

data_MIL140
_audit_block_doi                 10.5517/cczcrdg
_database_code_depnum_ccdc_archive 'CCDC 905026'
loop_
_citation_id
_citation_doi
_citation_year
1 10.1002/anie.201204806 2012
_audit_update_record             
;
2012-10-08 deposited with the CCDC.	2021-12-14 downloaded from the CCDC.
;
#TrackingRef 'MIL-140A exp.cif'

_audit_creation_method           
'Created with CONVERT.DLL (www.crystalimpact.com)'
_audit_creation_date             2012-06-04
_chemical_formula_sum            'Zr8 O36 C64'
_chemical_formula_weight         2074.474
_cell_length_a                   24.4243(10)
_cell_length_b                   11.1795(10)
_cell_length_c                   7.8022(10)
_cell_angle_alpha                90.000
_cell_angle_beta                 103.861(2)
_cell_angle_gamma                90.000
_cell_volume                     2068.4(3)
_symmetry_int_tables_number      15
_symmetry_space_group_name_H-M   'C 1 2/c 1'
_symmetry_space_group_name_Hall  -C_2yc

loop_
_symmetry_equiv_pos_site_id
_symmetry_equiv_pos_as_xyz
1 x,y,z
2 -x,y,0.500-z
3 -x,-y,-z
4 x,-y,0.500+z
5 0.500+x,0.500+y,z
6 0.500-x,0.500+y,0.500-z
7 0.500-x,0.500-y,-z
8 0.500+x,0.500-y,0.500+z

loop_
_atom_type_symbol
_atom_type_oxidation_number
_atom_type_radius_bond
Zr ? 1.200
O ? 0.660
C ? 0.860


loop_
_atom_site_label
_atom_site_type_symbol
_atom_site_fract_x
_atom_site_fract_y
_atom_site_fract_z
_atom_site_occupancy
_atom_site_symmetry_multiplicity
_atom_site_Wyckoff_symbol
_atom_site_attached_hydrogens
_atom_site_calc_flag
_atom_site_thermal_displace_type
_atom_site_u_iso_or_equiv
Zr Zr -0.0555 -1.0170 -0.6665 1.000 8 f ? d Uiso 0.08000
O1 O -0.0432 -0.8136 -0.7221 0.500 8 f ? d Uiso 0.08000
O2 O -0.1148 -1.0865 -0.5151 1.000 8 f ? d Uiso 0.08000
O4 O -0.0302 -0.9793 -0.3944 1.000 8 f ? d Uiso 0.08000
O5 O -0.0363 -0.2004 -0.6580 1.000 8 f ? d Uiso 0.08000
O7 O -0.1360 -0.9296 -0.7537 1.000 8 f ? d Uiso 0.08000
C1 C -0.1510 -1.0995 -0.4120 1.000 8 f ? d Uiso 0.08000
C2 C -0.1981 -1.1724 -0.4768 1.000 8 f ? d Uiso 0.08000
C3 C -0.2141 -1.2394 -0.6246 1.000 8 f ? d Uiso 0.08000
C4 C -0.2387 -1.1822 -0.3591 1.000 8 f ? d Uiso 0.08000
C5 C 0.0000 -0.7512 -0.7500 1.000 4 e ? d Uiso 0.08000
C6 C 0.0000 -0.2166 -0.7500 1.000 4 e ? d Uiso 0.08000
C7 C 0.0000 -0.3460 -0.7500 1.000 4 e ? d Uiso 0.08000
C8 C 0.0000 -0.6032 -0.7500 1.000 4 e ? d Uiso 0.08000
C9 C 0.0465 -0.4109 -0.7815 1.000 8 f ? d Uiso 0.08000
C10 C 0.0435 -0.5407 -0.7981 1.000 8 f ? d Uiso 0.08000



